test/main.dss
Clear 

Set DefaultBaseFrequency=50 

! Swing or Source Bar 
New circuit.merged_mv_energy_network_1 phases=3 pu=1.0 basekv=150.0 bus1=jointHighVoltageTrafo_import 

! Trafo XFMRCodes 
Redirect XFMRCode.dss 

! Trafo 
New Transformer.transformer5 Xfmrcode=testtrafotype Buses=[joint5  lvjoint7.1.2.3] kVs=[10.0 0.4] 
New Transformer.transformer10 Xfmrcode=10500_420_V_400_kVA_IEO Buses=[joint10  Trafo10_joint2.1.2.3] kVs=[10.0 0.4] 
New Transformer.transformer14 Xfmrcode=9500_380_V_315_kVA_IEO Buses=[joint14  Trafo14_joint2.1.2.3] kVs=[10.0 0.4] 
New Transformer.transformer22 Xfmrcode=testtrafotype Buses=[joint22  lvjoint24.1.2.3] kVs=[10.0 0.4] 
New Transformer.transformer27 Xfmrcode=10500_420_V_630_kVA_IEO Buses=[joint27  Trafo27_joint2.1.2.3] kVs=[10.0 0.4] 
New Transformer.transformer36 Xfmrcode=testtrafotype Buses=[joint36  lvjoint38.1.2.3] kVs=[10.0 0.4] 
New Transformer.transformer38 Xfmrcode=testtrafotype Buses=[joint38  lvjoint40.1.2.3] kVs=[10.0 0.4] 
New Transformer.transformer44 Xfmrcode=10750_400_V_400_kVA_IEO Buses=[joint44  Trafo44_joint5.1.2.3] kVs=[10.0 0.4] 
New Transformer.transformer51 Xfmrcode=10000_400_V_250_kVA_IEO Buses=[joint51  Trafo51_joint1.1.2.3] kVs=[10.0 0.4] 
New Transformer.transformer57 Xfmrcode=testtrafotype Buses=[joint57  lvjoint59.1.2.3] kVs=[10.0 0.4] 
New Transformer.transformer63 Xfmrcode=10000_380_V_400_kVA_Smit Buses=[joint63  Trafo63_joint1.1.2.3] kVs=[10.0 0.4] 
New Transformer.transformer68 Xfmrcode=10250_400_V_400_kVA_Smit Buses=[joint68  Trafo68_joint1.1.2.3] kVs=[10.0 0.4] 
New Transformer.transformer73 Xfmrcode=10250_400_V_400_kVA_Smit Buses=[joint73  Trafo73_joint1.1.2.3] kVs=[10.0 0.4] 
New Transformer.transformer80 Xfmrcode=10250_400_V_400_kVA_IEO Buses=[joint80  Trafo80_joint1.1.2.3] kVs=[10.0 0.4] 
New Transformer.transformer84 Xfmrcode=10000_380_V_400_kVA_Smit Buses=[joint84  Trafo84_joint2.1.2.3] kVs=[10.0 0.4] 
New Transformer.transformer91 Xfmrcode=10250_380_V_300_kVA_IEO Buses=[joint91  Trafo91_joint1.1.2.3] kVs=[10.0 0.4] 
New Transformer.HighVoltageTrafo Xfmrcode=highvoltagetesttrafotype  Buses=[jointHighVoltageTrafo_import  jointHighVoltageTrafo.1.2.3] kVs=[150.0 10.0] 

! LineCodes 
Redirect LineCode.dss 

! Lines 
New Line.Trafo10_lv_cable1 Phases=4 Bus1=Trafo10_joint29.1.2.3.4 Bus2=Trafo10_home1.1.2.3.4 LineCode=4x10Cu_as10__VO_YMvK_asmb_ Length=14.6 Units=m 
New Line.Trafo10_lv_cable2 Phases=4 Bus1=Trafo10_joint30.1.2.3.4 Bus2=Trafo10_home2.1.2.3.4 LineCode=4x10Cu_as10__VO_YMvK_asmb_ Length=1.3 Units=m 
New Line.Trafo10_lv_cable3 Phases=4 Bus1=Trafo10_joint77.1.2.3.4 Bus2=Trafo10_home3.1.2.3.4 LineCode=4x16Al_as10__YMvK_asmb_ Length=3.7 Units=m 
New Line.Trafo10_lv_cable4 Phases=4 Bus1=Trafo10_joint124.1.2.3.4 Bus2=Trafo10_home4.1.2.3.4 LineCode=4x6Cu_4x2_5Cu__VG_YMvKh_asmb_ Length=9.6 Units=m 
New Line.Trafo10_lv_cable5 Phases=4 Bus1=Trafo10_joint126.1.2.3.4 Bus2=Trafo10_home5.1.2.3.4 LineCode=4x16Cu_as16__VG_YMVK_asmb_ Length=4.8 Units=m 
New Line.Trafo10_lv_cable6 Phases=4 Bus1=Trafo10_joint130.1.2.3.4 Bus2=Trafo10_home6.1.2.3.4 LineCode=4x10Cu_as10__VO_YMvK_asmb_ Length=1.0 Units=m 
New Line.Trafo10_lv_cable7 Phases=4 Bus1=Trafo10_joint131.1.2.3.4 Bus2=Trafo10_home7.1.2.3.4 LineCode=4x10Cu_as10__VO_YMvK_asmb_ Length=7.0 Units=m 
New Line.Trafo10_lv_cable8 Phases=4 Bus1=Trafo10_joint133.1.2.3.4 Bus2=Trafo10_home8.1.2.3.4 LineCode=4x50Cu__VMvK_ Length=12.6 Units=m 
New Line.Trafo10_lv_cable9 Phases=4 Bus1=Trafo10_joint137.1.2.3.4 Bus2=Trafo10_home9.1.2.3.4 LineCode=4x6Cu__GPLK_ Length=5.8 Units=m 
New Line.Trafo10_lv_cable10 Phases=4 Bus1=Trafo10_joint138.1.2.3.4 Bus2=Trafo10_home10.1.2.3.4 LineCode=4x6Cu__GPLK_ Length=5.8 Units=m 
New Line.Trafo10_lv_cable11 Phases=4 Bus1=Trafo10_joint139.1.2.3.4 Bus2=Trafo10_home11.1.2.3.4 LineCode=4x10Cu_as10__VO_YMvK_asmb_ Length=13.7 Units=m 
New Line.Trafo10_lv_cable12 Phases=4 Bus1=Trafo10_joint141.1.2.3.4 Bus2=Trafo10_home12.1.2.3.4 LineCode=4x10Cu_as10__VO_YMvK_asmb_ Length=13.4 Units=m 
New Line.Trafo10_lv_cable13 Phases=4 Bus1=Trafo10_joint142.1.2.3.4 Bus2=Trafo10_home13.1.2.3.4 LineCode=4x16Al__VG_VMvK_as_ Length=6.2 Units=m 
New Line.Trafo10_lv_cable14 Phases=4 Bus1=Trafo10_joint144.1.2.3.4 Bus2=Trafo10_home14.1.2.3.4 LineCode=4x6Cu__GPLK_ Length=1.8 Units=m 
New Line.Trafo10_lv_cable15 Phases=4 Bus1=Trafo10_joint145.1.2.3.4 Bus2=Trafo10_home15.1.2.3.4 LineCode=4x6Cu__VMvK_ Length=4.4 Units=m 
New Line.Trafo10_lv_cable16 Phases=4 Bus1=Trafo10_joint146.1.2.3.4 Bus2=Trafo10_home16.1.2.3.4 LineCode=4x16Al__VMvK_ Length=6.9 Units=m 
New Line.Trafo10_lv_cable17 Phases=4 Bus1=Trafo10_joint147.1.2.3.4 Bus2=Trafo10_home17.1.2.3.4 LineCode=4x16Al_as10__YMvK_asmb_ Length=22.6 Units=m 
New Line.Trafo10_lv_cable18 Phases=4 Bus1=Trafo10_joint148.1.2.3.4 Bus2=Trafo10_home18.1.2.3.4 LineCode=4x16Al_as10__YMvK_asmb_ Length=11.5 Units=m 
New Line.Trafo10_lv_cable19 Phases=4 Bus1=Trafo10_joint149.1.2.3.4 Bus2=Trafo10_home19.1.2.3.4 LineCode=4x6Cu__GPLK_ Length=6.0 Units=m 
New Line.Trafo10_lv_cable20 Phases=4 Bus1=Trafo10_joint153.1.2.3.4 Bus2=Trafo10_home20.1.2.3.4 LineCode=4x6Cu__VMvK_ Length=4.2 Units=m 
New Line.Trafo10_lv_cable21 Phases=4 Bus1=Trafo10_joint154.1.2.3.4 Bus2=Trafo10_home21.1.2.3.4 LineCode=4x10Cu_as10__VO_YMvK_asmb_ Length=3.0 Units=m 
New Line.Trafo10_lv_cable22 Phases=4 Bus1=Trafo10_joint154.1.2.3.4 Bus2=Trafo10_home22.1.2.3.4 LineCode=4x10Cu_as10__VO_YMvK_asmb_ Length=3.0 Units=m 
New Line.Trafo10_lv_cable23 Phases=4 Bus1=Trafo10_joint167.1.2.3.4 Bus2=Trafo10_home23.1.2.3.4 LineCode=4x10Cu_as10__VO_YMvK_asmb_ Length=1.0 Units=m 
New Line.Trafo10_lv_cable24 Phases=4 Bus1=Trafo10_joint168.1.2.3.4 Bus2=Trafo10_home24.1.2.3.4 LineCode=4x10Cu_as10__VO_YMvK_asmb_ Length=6.1 Units=m 
New Line.Trafo10_lv_cable25 Phases=4 Bus1=Trafo10_joint169.1.2.3.4 Bus2=Trafo10_home25.1.2.3.4 LineCode=4x10Cu__VO_YMvKas_ Length=4.8 Units=m 
New Line.Trafo10_lv_cable26 Phases=4 Bus1=Trafo10_joint177.1.2.3.4 Bus2=Trafo10_home26.1.2.3.4 LineCode=4x16Cu_as16__VG_YMVK_asmb_ Length=26.1 Units=m 
New Line.Trafo10_lv_cable27 Phases=4 Bus1=Trafo10_joint180.1.2.3.4 Bus2=Trafo10_home27.1.2.3.4 LineCode=4x10Cu__GPLK_ Length=3.3 Units=m 
New Line.Trafo10_lv_cable28 Phases=4 Bus1=Trafo10_joint181.1.2.3.4 Bus2=Trafo10_home28.1.2.3.4 LineCode=4x10Cu__GPLK_ Length=13.4 Units=m 
New Line.Trafo10_lv_cable29 Phases=4 Bus1=Trafo10_joint184.1.2.3.4 Bus2=Trafo10_home29.1.2.3.4 LineCode=4x16Cu__VG_VMvK_as_ Length=2.9 Units=m 
New Line.Trafo10_lv_cable30 Phases=4 Bus1=Trafo10_joint186.1.2.3.4 Bus2=Trafo10_home30.1.2.3.4 LineCode=4x16Cu_as16__VG_YMVK_asmb_ Length=39.8 Units=m 
New Line.Trafo10_lv_cable31 Phases=4 Bus1=Trafo10_joint190.1.2.3.4 Bus2=Trafo10_home31.1.2.3.4 LineCode=4x10Cu_as10__VO_YMvK_asmb_ Length=5.3 Units=m 
New Line.Trafo10_lv_cable32 Phases=4 Bus1=Trafo10_joint191.1.2.3.4 Bus2=Trafo10_home32.1.2.3.4 LineCode=4x10Cu_as10__VO_YMvK_asmb_ Length=5.3 Units=m 
New Line.Trafo10_lv_cable33 Phases=4 Bus1=Trafo10_joint192.1.2.3.4 Bus2=Trafo10_home33.1.2.3.4 LineCode=4x10Cu_as10__VO_YMvK_asmb_ Length=13.8 Units=m 
New Line.Trafo10_lv_cable34 Phases=4 Bus1=Trafo10_joint194.1.2.3.4 Bus2=Trafo10_home34.1.2.3.4 LineCode=4x10Cu_as10__VO_YMvK_asmb_ Length=17.6 Units=m 
New Line.Trafo10_lv_cable35 Phases=4 Bus1=Trafo10_joint197.1.2.3.4 Bus2=Trafo10_home35.1.2.3.4 LineCode=4x10Cu_as10__VO_YMvK_asmb_ Length=8.2 Units=m 
New Line.Trafo10_lv_cable36 Phases=4 Bus1=Trafo10_joint199.1.2.3.4 Bus2=Trafo10_home36.1.2.3.4 LineCode=4x10Cu_as10__VO_YMvK_asmb_ Length=2.0 Units=m 
New Line.Trafo10_lv_cable37 Phases=4 Bus1=Trafo10_joint202.1.2.3.4 Bus2=Trafo10_home37.1.2.3.4 LineCode=4x6Cu__GPLK_ Length=15.0 Units=m 
New Line.Trafo10_lv_cable38 Phases=4 Bus1=Trafo10_joint205.1.2.3.4 Bus2=Trafo10_home38.1.2.3.4 LineCode=4x6Cu__GPLK_ Length=14.8 Units=m 
New Line.Trafo10_lv_cable39 Phases=4 Bus1=Trafo10_joint210.1.2.3.4 Bus2=Trafo10_home39.1.2.3.4 LineCode=4x6Cu__VMvK_ Length=3.1 Units=m 
New Line.Trafo10_lv_cable40 Phases=4 Bus1=Trafo10_joint215.1.2.3.4 Bus2=Trafo10_home40.1.2.3.4 LineCode=4x6Cu__VMvK_ Length=2.7 Units=m 
New Line.Trafo10_lv_cable41 Phases=4 Bus1=Trafo10_joint217.1.2.3.4 Bus2=Trafo10_home41.1.2.3.4 LineCode=4x16Al_as10__YMvK_asmb_ Length=5.4 Units=m 
New Line.Trafo10_lv_cable42 Phases=4 Bus1=Trafo10_joint218.1.2.3.4 Bus2=Trafo10_home42.1.2.3.4 LineCode=4x16Cu__VG_VMvK_as_ Length=17.5 Units=m 
New Line.Trafo10_lv_cable43 Phases=4 Bus1=Trafo10_joint219.1.2.3.4 Bus2=Trafo10_home43.1.2.3.4 LineCode=4x16Al_as10__YMvK_asmb_ Length=6.7 Units=m 
New Line.Trafo10_lv_cable44 Phases=4 Bus1=Trafo10_joint222.1.2.3.4 Bus2=Trafo10_home44.1.2.3.4 LineCode=4x16Al_as10__YMvK_asmb_ Length=5.6 Units=m 
New Line.Trafo10_lv_cable45 Phases=4 Bus1=Trafo10_joint224.1.2.3.4 Bus2=Trafo10_home45.1.2.3.4 LineCode=4x16Cu__VG_VMvK_as_ Length=11.7 Units=m 
New Line.Trafo10_lv_cable46 Phases=4 Bus1=Trafo10_joint225.1.2.3.4 Bus2=Trafo10_home46.1.2.3.4 LineCode=4x6Cu__VMvK_ Length=13.3 Units=m 
New Line.Trafo10_lv_cable47 Phases=4 Bus1=Trafo10_joint226.1.2.3.4 Bus2=Trafo10_home47.1.2.3.4 LineCode=4x6Cu__GPLK_ Length=10.6 Units=m 
New Line.Trafo10_lv_cable48 Phases=4 Bus1=Trafo10_joint228.1.2.3.4 Bus2=Trafo10_home48.1.2.3.4 LineCode=4x16Al_as10__YMvK_asmb_ Length=4.1 Units=m 
New Line.Trafo10_lv_cable49 Phases=4 Bus1=Trafo10_joint230.1.2.3.4 Bus2=Trafo10_home49.1.2.3.4 LineCode=4x16Cu__VG_VMvK_as_ Length=2.2 Units=m 
New Line.Trafo10_lv_cable50 Phases=4 Bus1=Trafo10_joint231.1.2.3.4 Bus2=Trafo10_home50.1.2.3.4 LineCode=4x16Cu__VG_VMvK_as_ Length=11.5 Units=m 
New Line.Trafo10_lv_cable51 Phases=4 Bus1=Trafo10_joint232.1.2.3.4 Bus2=Trafo10_home51.1.2.3.4 LineCode=4x16Al_as10__YMvK_asmb_ Length=4.3 Units=m 
New Line.Trafo10_lv_cable52 Phases=4 Bus1=Trafo10_joint233.1.2.3.4 Bus2=Trafo10_home52.1.2.3.4 LineCode=4x16Cu__VG_VMvK_as_ Length=18.0 Units=m 
New Line.Trafo10_lv_cable53 Phases=4 Bus1=Trafo10_joint234.1.2.3.4 Bus2=Trafo10_home53.1.2.3.4 LineCode=4x16Cu__GPLK_ Length=12.7 Units=m 
New Line.Trafo10_lv_cable54 Phases=4 Bus1=Trafo10_joint237.1.2.3.4 Bus2=Trafo10_home54.1.2.3.4 LineCode=4x6Cu__GPLK_ Length=11.2 Units=m 
New Line.Trafo10_lv_cable55 Phases=4 Bus1=Trafo10_joint238.1.2.3.4 Bus2=Trafo10_home55.1.2.3.4 LineCode=4x16Al_as10__YMvK_asmb_ Length=6.1 Units=m 
New Line.Trafo10_lv_cable56 Phases=4 Bus1=Trafo10_joint239.1.2.3.4 Bus2=Trafo10_home56.1.2.3.4 LineCode=4x4Cu__GPLK_ Length=4.9 Units=m 
New Line.Trafo10_lv_cable57 Phases=4 Bus1=Trafo10_joint241.1.2.3.4 Bus2=Trafo10_home57.1.2.3.4 LineCode=4x16Cu__VG_VMvK_as_ Length=7.5 Units=m 
New Line.Trafo10_lv_cable58 Phases=4 Bus1=Trafo10_joint243.1.2.3.4 Bus2=Trafo10_home58.1.2.3.4 LineCode=4x16Al_as10__YMvK_asmb_ Length=5.3 Units=m 
New Line.Trafo10_lv_cable59 Phases=4 Bus1=Trafo10_joint244.1.2.3.4 Bus2=Trafo10_home59.1.2.3.4 LineCode=4x16Cu__VG_VMvK_as_ Length=5.5 Units=m 
New Line.Trafo10_lv_cable60 Phases=4 Bus1=Trafo10_joint245.1.2.3.4 Bus2=Trafo10_home60.1.2.3.4 LineCode=4x6Cu__GPLK_ Length=5.6 Units=m 
New Line.Trafo10_lv_cable61 Phases=4 Bus1=Trafo10_joint248.1.2.3.4 Bus2=Trafo10_home61.1.2.3.4 LineCode=4x16Cu__VG_VMvK_as_ Length=6.9 Units=m 
New Line.Trafo10_lv_cable62 Phases=4 Bus1=Trafo10_joint250.1.2.3.4 Bus2=Trafo10_home62.1.2.3.4 LineCode=4x16Cu__VG_VMvK_as_ Length=7.0 Units=m 
New Line.Trafo10_lv_cable63 Phases=4 Bus1=Trafo10_joint252.1.2.3.4 Bus2=Trafo10_home63.1.2.3.4 LineCode=4x6Cu__GPLK_ Length=5.4 Units=m 
New Line.Trafo10_lv_cable64 Phases=4 Bus1=Trafo10_joint253.1.2.3.4 Bus2=Trafo10_home64.1.2.3.4 LineCode=4x6Cu__GPLK_ Length=6.9 Units=m 
New Line.Trafo10_lv_cable65 Phases=4 Bus1=Trafo10_joint254.1.2.3.4 Bus2=Trafo10_home65.1.2.3.4 LineCode=4x16Cu__VG_VMvK_as_ Length=6.4 Units=m 
New Line.Trafo10_lv_cable66 Phases=4 Bus1=Trafo10_joint255.1.2.3.4 Bus2=Trafo10_home66.1.2.3.4 LineCode=4x16Cu__VG_VMvK_as_ Length=3.3 Units=m 
New Line.Trafo10_lv_cable67 Phases=4 Bus1=Trafo10_joint258.1.2.3.4 Bus2=Trafo10_home67.1.2.3.4 LineCode=4x6Cu__GPLK_ Length=4.0 Units=m 
New Line.Trafo10_lv_cable68 Phases=4 Bus1=Trafo10_joint260.1.2.3.4 Bus2=Trafo10_home68.1.2.3.4 LineCode=4x6Cu__VMvK_ Length=5.2 Units=m 
New Line.Trafo10_lv_cable69 Phases=4 Bus1=Trafo10_joint261.1.2.3.4 Bus2=Trafo10_home69.1.2.3.4 LineCode=4x6Cu__VMvK_ Length=4.0 Units=m 
New Line.Trafo10_lv_cable70 Phases=4 Bus1=Trafo10_joint262.1.2.3.4 Bus2=Trafo10_home70.1.2.3.4 LineCode=4x6Cu__GPLK_ Length=4.5 Units=m 
New Line.Trafo10_lv_cable71 Phases=4 Bus1=Trafo10_joint263.1.2.3.4 Bus2=Trafo10_home71.1.2.3.4 LineCode=4x6Cu__GPLK_ Length=4.0 Units=m 
New Line.Trafo10_lv_cable72 Phases=4 Bus1=Trafo10_joint264.1.2.3.4 Bus2=Trafo10_home72.1.2.3.4 LineCode=4x6Cu__GPLK_ Length=3.8 Units=m 
New Line.Trafo10_lv_cable73 Phases=4 Bus1=Trafo10_joint265.1.2.3.4 Bus2=Trafo10_home73.1.2.3.4 LineCode=4x6Cu__GPLK_ Length=4.7 Units=m 
New Line.Trafo10_lv_cable74 Phases=4 Bus1=Trafo10_joint266.1.2.3.4 Bus2=Trafo10_home74.1.2.3.4 LineCode=4x6Cu__GPLK_ Length=14.1 Units=m 
New Line.Trafo10_lv_cable75 Phases=4 Bus1=Trafo10_joint270.1.2.3.4 Bus2=Trafo10_home75.1.2.3.4 LineCode=4x16Al_as10__YMvK_asmb_ Length=7.3 Units=m 
New Line.Trafo10_lv_cable76 Phases=4 Bus1=Trafo10_joint271.1.2.3.4 Bus2=Trafo10_home76.1.2.3.4 LineCode=4x16Al_as10__YMvK_asmb_ Length=9.9 Units=m 
New Line.Trafo10_lv_cable77 Phases=4 Bus1=Trafo10_joint278.1.2.3.4 Bus2=Trafo10_home77.1.2.3.4 LineCode=4x16Cu__VG_VMvK_as_ Length=6.3 Units=m 
New Line.Trafo10_lv_cable78 Phases=4 Bus1=Trafo10_joint279.1.2.3.4 Bus2=Trafo10_home78.1.2.3.4 LineCode=4x16Cu__VG_VMvK_as_ Length=12.4 Units=m 
New Line.Trafo10_lv_cable79 Phases=4 Bus1=Trafo10_joint280.1.2.3.4 Bus2=Trafo10_home79.1.2.3.4 LineCode=4x16Cu__VG_VMvK_as_ Length=2.7 Units=m 
New Line.Trafo10_lv_cable80 Phases=4 Bus1=Trafo10_joint281.1.2.3.4 Bus2=Trafo10_home80.1.2.3.4 LineCode=4x16Cu__VG_VMvK_as_ Length=2.2 Units=m 
New Line.Trafo10_lv_cable81 Phases=4 Bus1=Trafo10_joint282.1.2.3.4 Bus2=Trafo10_home81.1.2.3.4 LineCode=4x16Cu__VG_VMvK_as_ Length=1.9 Units=m 
New Line.Trafo10_lv_cable82 Phases=4 Bus1=Trafo10_joint288.1.2.3.4 Bus2=Trafo10_home82.1.2.3.4 LineCode=4x6Cu__GPLK_ Length=1.7 Units=m 
New Line.Trafo10_lv_cable83 Phases=4 Bus1=Trafo10_joint290.1.2.3.4 Bus2=Trafo10_home83.1.2.3.4 LineCode=4x6Cu__GPLK_ Length=5.8 Units=m 
New Line.Trafo10_lv_cable84 Phases=4 Bus1=Trafo10_joint292.1.2.3.4 Bus2=Trafo10_home84.1.2.3.4 LineCode=4x6Cu__GPLK_ Length=2.1 Units=m 
New Line.Trafo10_lv_cable85 Phases=4 Bus1=Trafo10_joint298.1.2.3.4 Bus2=Trafo10_home85.1.2.3.4 LineCode=4x6Cu__VMvK_ Length=5.6 Units=m 
New Line.Trafo10_lv_cable86 Phases=4 Bus1=Trafo10_joint299.1.2.3.4 Bus2=Trafo10_home86.1.2.3.4 LineCode=4x6Cu__VMvK_ Length=5.8 Units=m 
New Line.Trafo10_lv_cable87 Phases=4 Bus1=Trafo10_joint300.1.2.3.4 Bus2=Trafo10_home87.1.2.3.4 LineCode=4x6Cu__VMvK_ Length=6.0 Units=m 
New Line.Trafo10_lv_cable88 Phases=4 Bus1=Trafo10_joint301.1.2.3.4 Bus2=Trafo10_home88.1.2.3.4 LineCode=4x6Cu__VMvK_ Length=6.2 Units=m 
New Line.Trafo10_lv_cable89 Phases=4 Bus1=Trafo10_joint302.1.2.3.4 Bus2=Trafo10_home89.1.2.3.4 LineCode=4x16Cu__VG_VMvK_as_ Length=7.4 Units=m 
New Line.Trafo10_lv_cable90 Phases=4 Bus1=Trafo10_joint303.1.2.3.4 Bus2=Trafo10_home90.1.2.3.4 LineCode=4x16Cu__VG_VMvK_as_ Length=9.4 Units=m 
New Line.Trafo10_lv_cable91 Phases=4 Bus1=Trafo10_joint305.1.2.3.4 Bus2=Trafo10_home91.1.2.3.4 LineCode=4x6Cu__GPLK_ Length=1.0 Units=m 
New Line.Trafo10_lv_cable92 Phases=4 Bus1=Trafo10_joint306.1.2.3.4 Bus2=Trafo10_home92.1.2.3.4 LineCode=4x16Cu__VG_VMvK_as_ Length=7.8 Units=m 
New Line.Trafo10_lv_cable93 Phases=4 Bus1=Trafo10_joint308.1.2.3.4 Bus2=Trafo10_home93.1.2.3.4 LineCode=4x16Cu__VG_VMvK_as_ Length=8.0 Units=m 
New Line.Trafo10_lv_cable94 Phases=4 Bus1=Trafo10_joint309.1.2.3.4 Bus2=Trafo10_home94.1.2.3.4 LineCode=4x6Cu__VMvK_ Length=8.4 Units=m 
New Line.Trafo10_lv_cable95 Phases=4 Bus1=Trafo10_joint311.1.2.3.4 Bus2=Trafo10_home95.1.2.3.4 LineCode=4x6Cu__VMvK_ Length=3.2 Units=m 
New Line.Trafo10_lv_cable96 Phases=4 Bus1=Trafo10_joint312.1.2.3.4 Bus2=Trafo10_home96.1.2.3.4 LineCode=4x6Cu__VMvK_ Length=3.7 Units=m 
New Line.Trafo10_lv_cable97 Phases=4 Bus1=Trafo10_joint313.1.2.3.4 Bus2=Trafo10_home97.1.2.3.4 LineCode=4x6Cu__VMvK_ Length=3.3 Units=m 
New Line.Trafo10_lv_cable98 Phases=4 Bus1=Trafo10_joint314.1.2.3.4 Bus2=Trafo10_home98.1.2.3.4 LineCode=4x6Cu__VMvK_ Length=3.4 Units=m 
New Line.Trafo10_lv_cable99 Phases=4 Bus1=Trafo10_joint315.1.2.3.4 Bus2=Trafo10_home99.1.2.3.4 LineCode=4x6Cu__VMvK_ Length=3.5 Units=m 
New Line.Trafo10_lv_cable100 Phases=4 Bus1=Trafo10_joint324.1.2.3.4 Bus2=Trafo10_home100.1.2.3.4 LineCode=4x6Cu__VMvK_ Length=3.5 Units=m 
New Line.Trafo10_lv_cable101 Phases=4 Bus1=Trafo10_joint325.1.2.3.4 Bus2=Trafo10_home101.1.2.3.4 LineCode=4x6Cu__VMvK_ Length=3.6 Units=m 
New Line.Trafo10_lv_cable102 Phases=4 Bus1=Trafo10_joint326.1.2.3.4 Bus2=Trafo10_home102.1.2.3.4 LineCode=4x16Cu__VG_VMvK_as_ Length=3.7 Units=m 
New Line.Trafo10_lv_cable103 Phases=4 Bus1=Trafo10_joint328.1.2.3.4 Bus2=Trafo10_home103.1.2.3.4 LineCode=4x16Cu__VG_VMvK_as_ Length=4.4 Units=m 
New Line.Trafo10_lv_cable104 Phases=4 Bus1=Trafo10_joint329.1.2.3.4 Bus2=Trafo10_home104.1.2.3.4 LineCode=4x16Al_as10__YMvK_asmb_ Length=5.9 Units=m 
New Line.Trafo10_lv_cable105 Phases=4 Bus1=Trafo10_joint330.1.2.3.4 Bus2=Trafo10_home105.1.2.3.4 LineCode=4x16Al_as10__YMvK_asmb_ Length=4.1 Units=m 
New Line.Trafo10_lv_cable106 Phases=4 Bus1=Trafo10_joint331.1.2.3.4 Bus2=Trafo10_home106.1.2.3.4 LineCode=4x6Cu__GPLK_ Length=3.7 Units=m 
New Line.Trafo10_lv_cable107 Phases=4 Bus1=Trafo10_joint332.1.2.3.4 Bus2=Trafo10_home107.1.2.3.4 LineCode=4x6Cu__GPLK_ Length=3.8 Units=m 
New Line.Trafo10_lv_cable108 Phases=4 Bus1=Trafo10_joint333.1.2.3.4 Bus2=Trafo10_home108.1.2.3.4 LineCode=4x6Cu__GPLK_ Length=2.8 Units=m 
New Line.Trafo10_lv_cable109 Phases=4 Bus1=Trafo10_joint335.1.2.3.4 Bus2=Trafo10_home109.1.2.3.4 LineCode=4x6Cu__VMvK_ Length=5.6 Units=m 
New Line.Trafo10_lv_cable110 Phases=4 Bus1=Trafo10_joint336.1.2.3.4 Bus2=Trafo10_home110.1.2.3.4 LineCode=4x16Cu__VG_VMvK_as_ Length=3.9 Units=m 
New Line.Trafo10_lv_cable111 Phases=4 Bus1=Trafo10_joint337.1.2.3.4 Bus2=Trafo10_home111.1.2.3.4 LineCode=4x6Cu__VMvK_ Length=11.3 Units=m 
New Line.Trafo10_lv_cable112 Phases=4 Bus1=Trafo10_joint338.1.2.3.4 Bus2=Trafo10_home112.1.2.3.4 LineCode=4x16Al_as10__YMvK_asmb_ Length=4.7 Units=m 
New Line.Trafo10_lv_cable113 Phases=4 Bus1=Trafo10_joint339.1.2.3.4 Bus2=Trafo10_home113.1.2.3.4 LineCode=4x6Cu__VMvK_ Length=5.4 Units=m 
New Line.Trafo10_lv_cable114 Phases=4 Bus1=Trafo10_joint340.1.2.3.4 Bus2=Trafo10_home114.1.2.3.4 LineCode=4x6Cu__GPLK_ Length=14.0 Units=m 
New Line.Trafo10_lv_cable115 Phases=4 Bus1=Trafo10_joint341.1.2.3.4 Bus2=Trafo10_home115.1.2.3.4 LineCode=4x6Cu__VMvK_ Length=5.2 Units=m 
New Line.Trafo10_lv_cable116 Phases=4 Bus1=Trafo10_joint346.1.2.3.4 Bus2=Trafo10_home116.1.2.3.4 LineCode=4x6Cu__VMvK_ Length=3.7 Units=m 
New Line.Trafo10_lv_cable117 Phases=4 Bus1=Trafo10_joint347.1.2.3.4 Bus2=Trafo10_home117.1.2.3.4 LineCode=4x6Cu__VMvK_ Length=3.6 Units=m 
New Line.Trafo10_lv_cable118 Phases=4 Bus1=Trafo10_joint348.1.2.3.4 Bus2=Trafo10_home118.1.2.3.4 LineCode=4x6Cu__VMvK_ Length=4.0 Units=m 
New Line.Trafo10_lv_cable119 Phases=4 Bus1=Trafo10_joint349.1.2.3.4 Bus2=Trafo10_home119.1.2.3.4 LineCode=4x6Cu__VMvK_ Length=4.9 Units=m 
New Line.Trafo10_lv_cable120 Phases=4 Bus1=Trafo10_joint350.1.2.3.4 Bus2=Trafo10_home120.1.2.3.4 LineCode=4x6Cu__VMvK_ Length=4.0 Units=m 
New Line.Trafo10_lv_cable121 Phases=4 Bus1=Trafo10_joint351.1.2.3.4 Bus2=Trafo10_home121.1.2.3.4 LineCode=4x6Cu__VMvK_ Length=4.3 Units=m 
New Line.Trafo10_lv_cable122 Phases=4 Bus1=Trafo10_joint353.1.2.3.4 Bus2=Trafo10_home122.1.2.3.4 LineCode=4x10Cu_as10Cu__YMvK_asmb_ Length=2.3 Units=m 
New Line.Trafo10_lv_cable123 Phases=4 Bus1=Trafo10_joint354.1.2.3.4 Bus2=Trafo10_home123.1.2.3.4 LineCode=4x6Cu__VMvK_ Length=7.7 Units=m 
New Line.Trafo10_lv_cable124 Phases=4 Bus1=Trafo10_joint355.1.2.3.4 Bus2=Trafo10_home124.1.2.3.4 LineCode=4x6Cu__VMvK_ Length=9.2 Units=m 
New Line.Trafo10_lv_cable125 Phases=4 Bus1=Trafo10_joint356.1.2.3.4 Bus2=Trafo10_home125.1.2.3.4 LineCode=4x6Cu__VMvK_ Length=8.9 Units=m 
New Line.Trafo10_lv_cable126 Phases=4 Bus1=Trafo10_joint357.1.2.3.4 Bus2=Trafo10_home126.1.2.3.4 LineCode=4x6Cu__VMvK_ Length=8.6 Units=m 
New Line.Trafo10_lv_cable127 Phases=4 Bus1=Trafo10_joint359.1.2.3.4 Bus2=Trafo10_home127.1.2.3.4 LineCode=4x16Cu__VG_VMvK_as_ Length=1.0 Units=m 
New Line.Trafo10_lv_cable128 Phases=4 Bus1=Trafo10_joint360.1.2.3.4 Bus2=Trafo10_home128.1.2.3.4 LineCode=4x16Cu__VG_VMvK_as_ Length=6.8 Units=m 
New Line.Trafo10_lv_cable129 Phases=4 Bus1=Trafo10_joint361.1.2.3.4 Bus2=Trafo10_home129.1.2.3.4 LineCode=4x6Cu__GPLK_ Length=14.2 Units=m 
New Line.Trafo10_lv_cable130 Phases=4 Bus1=Trafo10_joint363.1.2.3.4 Bus2=Trafo10_home130.1.2.3.4 LineCode=4x6Cu__GPLK_ Length=2.3 Units=m 
New Line.Trafo10_lv_cable131 Phases=4 Bus1=Trafo10_joint364.1.2.3.4 Bus2=Trafo10_home131.1.2.3.4 LineCode=4x6Cu__GPLK_ Length=7.2 Units=m 
New Line.Trafo10_lv_cable132 Phases=4 Bus1=Trafo10_joint365.1.2.3.4 Bus2=Trafo10_home132.1.2.3.4 LineCode=4x6Cu__GPLK_ Length=3.4 Units=m 
New Line.Trafo10_lv_cable133 Phases=4 Bus1=Trafo10_joint368.1.2.3.4 Bus2=Trafo10_home133.1.2.3.4 LineCode=4x6Cu__GPLK_ Length=10.3 Units=m 
New Line.Trafo10_lv_cable134 Phases=4 Bus1=Trafo10_joint371.1.2.3.4 Bus2=Trafo10_home134.1.2.3.4 LineCode=4x6Cu__GPLK_ Length=5.2 Units=m 
New Line.Trafo10_lv_cable135 Phases=4 Bus1=Trafo10_joint372.1.2.3.4 Bus2=Trafo10_home135.1.2.3.4 LineCode=4x16Al_as10__YMvK_asmb_ Length=1.0 Units=m 
New Line.Trafo10_lv_cable136 Phases=4 Bus1=Trafo10_joint373.1.2.3.4 Bus2=Trafo10_home136.1.2.3.4 LineCode=4x50Al__VMvK_ Length=13.7 Units=m 
New Line.Trafo10_lv_cable137 Phases=4 Bus1=Trafo10_joint374.1.2.3.4 Bus2=Trafo10_home137.1.2.3.4 LineCode=4x6Cu__GPLK_ Length=1.0 Units=m 
New Line.Trafo10_lv_cable138 Phases=4 Bus1=Trafo10_joint375.1.2.3.4 Bus2=Trafo10_home138.1.2.3.4 LineCode=4x6Cu__GPLK_ Length=1.2 Units=m 
New Line.Trafo10_lv_cable139 Phases=4 Bus1=Trafo10_joint376.1.2.3.4 Bus2=Trafo10_home139.1.2.3.4 LineCode=4x6Cu__GPLK_ Length=1.4 Units=m 
New Line.Trafo10_lv_cable140 Phases=4 Bus1=Trafo10_joint377.1.2.3.4 Bus2=Trafo10_home140.1.2.3.4 LineCode=4x6Cu__GPLK_ Length=1.6 Units=m 
New Line.Trafo10_lv_cable141 Phases=4 Bus1=Trafo10_joint379.1.2.3.4 Bus2=Trafo10_home141.1.2.3.4 LineCode=4x6Cu__GPLK_ Length=1.8 Units=m 
New Line.Trafo10_lv_cable142 Phases=4 Bus1=Trafo10_joint380.1.2.3.4 Bus2=Trafo10_home142.1.2.3.4 LineCode=4x6Cu__GPLK_ Length=1.9 Units=m 
New Line.Trafo10_lv_cable143 Phases=4 Bus1=Trafo10_joint381.1.2.3.4 Bus2=Trafo10_home143.1.2.3.4 LineCode=4x6Cu__GPLK_ Length=1.9 Units=m 
New Line.Trafo10_lv_cable144 Phases=4 Bus1=Trafo10_joint386.1.2.3.4 Bus2=Trafo10_home144.1.2.3.4 LineCode=4x16Cu__VG_VMvK_as_ Length=7.3 Units=m 
New Line.Trafo10_lv_cable145 Phases=4 Bus1=Trafo10_joint387.1.2.3.4 Bus2=Trafo10_home145.1.2.3.4 LineCode=4x6Cu__GPLK_ Length=2.1 Units=m 
New Line.Trafo10_lv_cable146 Phases=4 Bus1=Trafo10_joint388.1.2.3.4 Bus2=Trafo10_home146.1.2.3.4 LineCode=4x6Cu__GPLK_ Length=14.0 Units=m 
New Line.Trafo10_lv_cable147 Phases=4 Bus1=Trafo10_joint389.1.2.3.4 Bus2=Trafo10_home147.1.2.3.4 LineCode=4x6Cu__VMvK_ Length=12.6 Units=m 
New Line.Trafo10_lv_cable148 Phases=4 Bus1=Trafo10_joint390.1.2.3.4 Bus2=Trafo10_home148.1.2.3.4 LineCode=4x16Cu__VG_VMvK_as_ Length=13.9 Units=m 
New Line.Trafo10_lv_cable149 Phases=4 Bus1=Trafo10_joint391.1.2.3.4 Bus2=Trafo10_home149.1.2.3.4 LineCode=4x6Cu__VMvK_ Length=12.6 Units=m 
New Line.Trafo10_lv_cable150 Phases=4 Bus1=Trafo10_joint392.1.2.3.4 Bus2=Trafo10_home150.1.2.3.4 LineCode=4x6Cu__VMvK_ Length=12.2 Units=m 
New Line.Trafo10_lv_cable151 Phases=4 Bus1=Trafo10_joint393.1.2.3.4 Bus2=Trafo10_home151.1.2.3.4 LineCode=4x16Cu__VG_VMvK_as_ Length=12.7 Units=m 
New Line.Trafo10_lv_cable152 Phases=4 Bus1=Trafo10_joint394.1.2.3.4 Bus2=Trafo10_home152.1.2.3.4 LineCode=4x16Al_as10__YMvK_asmb_ Length=13.2 Units=m 
New Line.Trafo10_lv_cable153 Phases=4 Bus1=Trafo10_joint395.1.2.3.4 Bus2=Trafo10_home153.1.2.3.4 LineCode=4x16Al_as10__YMvK_asmb_ Length=13.8 Units=m 
New Line.Trafo10_lv_cable154 Phases=4 Bus1=Trafo10_joint396.1.2.3.4 Bus2=Trafo10_home154.1.2.3.4 LineCode=4x16Cu__VG_VMvK_as_ Length=13.7 Units=m 
New Line.Trafo10_lv_cable155 Phases=4 Bus1=Trafo10_joint399.1.2.3.4 Bus2=Trafo10_home155.1.2.3.4 LineCode=4x16Cu__VG_VMvK_as_ Length=13.2 Units=m 
New Line.Trafo10_lv_cable156 Phases=4 Bus1=Trafo10_joint400.1.2.3.4 Bus2=Trafo10_home156.1.2.3.4 LineCode=4x16Al_as10__YMvK_asmb_ Length=5.1 Units=m 
New Line.Trafo10_lv_cable157 Phases=4 Bus1=Trafo10_joint405.1.2.3.4 Bus2=Trafo10_home157.1.2.3.4 LineCode=4x6Cu__GPLK_ Length=1.9 Units=m 
New Line.Trafo10_lv_cable158 Phases=4 Bus1=Trafo10_joint412.1.2.3.4 Bus2=Trafo10_home158.1.2.3.4 LineCode=4x6Cu__GPLK_ Length=14.7 Units=m 
New Line.Trafo10_lv_cable159 Phases=4 Bus1=Trafo10_joint415.1.2.3.4 Bus2=Trafo10_home159.1.2.3.4 LineCode=4x6Cu_4x1_5Cu__GPLKh_ Length=1.3 Units=m 
New Line.Trafo10_lv_cable160 Phases=4 Bus1=Trafo10_joint417.1.2.3.4 Bus2=Trafo10_home160.1.2.3.4 LineCode=4x16Al_as10__YMvK_asmb_ Length=4.7 Units=m 
New Line.Trafo10_lv_cable161 Phases=4 Bus1=Trafo10_joint418.1.2.3.4 Bus2=Trafo10_home161.1.2.3.4 LineCode=4x16Cu__VG_VMvK_as_ Length=4.4 Units=m 
New Line.Trafo10_lv_cable162 Phases=4 Bus1=Trafo10_joint422.1.2.3.4 Bus2=Trafo10_home162.1.2.3.4 LineCode=4x6Cu__VMvK_ Length=7.5 Units=m 
New Line.Trafo10_lv_cable163 Phases=4 Bus1=Trafo10_joint423.1.2.3.4 Bus2=Trafo10_home163.1.2.3.4 LineCode=4x6Cu__GPLK_ Length=5.7 Units=m 
New Line.Trafo10_lv_cable164 Phases=4 Bus1=Trafo10_joint425.1.2.3.4 Bus2=Trafo10_home164.1.2.3.4 LineCode=4x16Al_as10__YMvK_asmb_ Length=1.0 Units=m 
New Line.Trafo10_lv_cable165 Phases=4 Bus1=Trafo10_joint426.1.2.3.4 Bus2=Trafo10_home165.1.2.3.4 LineCode=4x6Cu__GPLK_ Length=1.0 Units=m 
New Line.Trafo10_lv_cable166 Phases=4 Bus1=Trafo10_joint427.1.2.3.4 Bus2=Trafo10_home166.1.2.3.4 LineCode=4x6Cu__GPLK_ Length=1.9 Units=m 
New Line.Trafo10_lv_cable167 Phases=4 Bus1=Trafo10_joint428.1.2.3.4 Bus2=Trafo10_home167.1.2.3.4 LineCode=4x6Cu__GPLK_ Length=1.0 Units=m 
New Line.Trafo10_lv_cable168 Phases=4 Bus1=Trafo10_joint429.1.2.3.4 Bus2=Trafo10_home168.1.2.3.4 LineCode=4x6Cu__VMvK_ Length=1.0 Units=m 
New Line.Trafo10_lv_cable169 Phases=4 Bus1=Trafo10_joint430.1.2.3.4 Bus2=Trafo10_home169.1.2.3.4 LineCode=4x6Cu__GPLK_ Length=1.0 Units=m 
New Line.Trafo10_lv_cable170 Phases=4 Bus1=Trafo10_joint431.1.2.3.4 Bus2=Trafo10_home170.1.2.3.4 LineCode=4x50Al__VMvK_ Length=4.8 Units=m 
New Line.Trafo10_lv_cable171 Phases=4 Bus1=Trafo10_joint432.1.2.3.4 Bus2=Trafo10_home171.1.2.3.4 LineCode=4x16Cu__VG_VMvK_as_ Length=7.3 Units=m 
New Line.Trafo10_lv_cable172 Phases=4 Bus1=Trafo10_joint434.1.2.3.4 Bus2=Trafo10_home172.1.2.3.4 LineCode=4x6Cu__GPLK_ Length=1.0 Units=m 
New Line.Trafo10_lv_cable173 Phases=4 Bus1=Trafo10_joint435.1.2.3.4 Bus2=Trafo10_home173.1.2.3.4 LineCode=4x6Cu__GPLK_ Length=1.2 Units=m 
New Line.Trafo10_lv_cable174 Phases=4 Bus1=Trafo10_joint436.1.2.3.4 Bus2=Trafo10_home174.1.2.3.4 LineCode=4x6Cu__GPLK_ Length=1.3 Units=m 
New Line.Trafo10_lv_cable175 Phases=4 Bus1=Trafo10_joint437.1.2.3.4 Bus2=Trafo10_home175.1.2.3.4 LineCode=4x6Cu__GPLK_ Length=1.0 Units=m 
New Line.Trafo10_lv_cable176 Phases=4 Bus1=Trafo10_joint438.1.2.3.4 Bus2=Trafo10_home176.1.2.3.4 LineCode=4x6Cu__GPLK_ Length=1.0 Units=m 
New Line.Trafo10_lv_cable177 Phases=4 Bus1=Trafo10_joint439.1.2.3.4 Bus2=Trafo10_home177.1.2.3.4 LineCode=4x6Cu__GPLK_ Length=1.0 Units=m 
New Line.Trafo10_lv_cable178 Phases=4 Bus1=Trafo10_joint440.1.2.3.4 Bus2=Trafo10_home178.1.2.3.4 LineCode=4x6Cu__GPLK_ Length=1.0 Units=m 
New Line.Trafo10_lv_cable179 Phases=4 Bus1=Trafo10_joint441.1.2.3.4 Bus2=Trafo10_home179.1.2.3.4 LineCode=4x6Cu__GPLK_ Length=1.9 Units=m 
New Line.Trafo10_lv_cable180 Phases=4 Bus1=Trafo10_joint442.1.2.3.4 Bus2=Trafo10_home180.1.2.3.4 LineCode=4x6Cu__GPLK_ Length=3.3 Units=m 
New Line.Trafo10_lv_cable181 Phases=4 Bus1=Trafo10_joint443.1.2.3.4 Bus2=Trafo10_home181.1.2.3.4 LineCode=4x16Cu__VG_VMvK_as_ Length=18.0 Units=m 
New Line.Trafo10_lv_cable182 Phases=4 Bus1=Trafo10_joint444.1.2.3.4 Bus2=Trafo10_home182.1.2.3.4 LineCode=4x16Cu__VG_VMvK_as_ Length=4.8 Units=m 
New Line.Trafo10_lv_cable183 Phases=4 Bus1=Trafo10_joint445.1.2.3.4 Bus2=Trafo10_home183.1.2.3.4 LineCode=4x16Cu__VG_VMvK_as_ Length=4.8 Units=m 
New Line.Trafo10_lv_cable184 Phases=4 Bus1=Trafo10_joint446.1.2.3.4 Bus2=Trafo10_home184.1.2.3.4 LineCode=4x16Cu__VG_VMvK_as_ Length=8.2 Units=m 
New Line.Trafo10_lv_cable185 Phases=4 Bus1=Trafo10_joint447.1.2.3.4 Bus2=Trafo10_home185.1.2.3.4 LineCode=4x16Cu__VG_VMvK_as_ Length=8.3 Units=m 
New Line.Trafo10_lv_cable186 Phases=4 Bus1=Trafo10_joint448.1.2.3.4 Bus2=Trafo10_home186.1.2.3.4 LineCode=4x16Cu__VG_VMvK_as_ Length=4.5 Units=m 
New Line.Trafo10_lv_cable187 Phases=4 Bus1=Trafo10_joint449.1.2.3.4 Bus2=Trafo10_home187.1.2.3.4 LineCode=4x6Cu__GPLK_ Length=28.9 Units=m 
New Line.Trafo10_lv_cable188 Phases=4 Bus1=Trafo10_joint450.1.2.3.4 Bus2=Trafo10_home188.1.2.3.4 LineCode=4x10Cu_as10__VO_YMvK_asmb_ Length=1.6 Units=m 
New Line.Trafo10_lv_cable189 Phases=4 Bus1=Trafo10_joint451.1.2.3.4 Bus2=Trafo10_home189.1.2.3.4 LineCode=4x10Cu_as10__VO_YMvK_asmb_ Length=1.3 Units=m 
New Line.Trafo10_lv_cable190 Phases=4 Bus1=Trafo10_joint452.1.2.3.4 Bus2=Trafo10_home190.1.2.3.4 LineCode=4x10Cu_as10__VO_YMvK_asmb_ Length=2.4 Units=m 
New Line.Trafo10_lv_cable191 Phases=4 Bus1=Trafo10_joint455.1.2.3.4 Bus2=Trafo10_home191.1.2.3.4 LineCode=4x50Al__VMvK_ Length=4.1 Units=m 
New Line.Trafo10_lv_cable192 Phases=4 Bus1=Trafo10_joint459.1.2.3.4 Bus2=Trafo10_home192.1.2.3.4 LineCode=4x16Al_as10__YMvK_asmb_ Length=3.3 Units=m 
New Line.Trafo10_lv_cable193 Phases=4 Bus1=Trafo10_joint460.1.2.3.4 Bus2=Trafo10_home193.1.2.3.4 LineCode=4x4Cu__GPLK_ Length=1.0 Units=m 
New Line.Trafo10_lv_cable194 Phases=4 Bus1=Trafo10_joint460.1.2.3.4 Bus2=Trafo10_home194.1.2.3.4 LineCode=4x4Cu__GPLK_ Length=3.2 Units=m 
New Line.Trafo10_lv_cable195 Phases=4 Bus1=Trafo10_joint461.1.2.3.4 Bus2=Trafo10_home195.1.2.3.4 LineCode=4x4Cu__GPLK_ Length=1.0 Units=m 
New Line.Trafo10_lv_cable196 Phases=4 Bus1=Trafo10_joint461.1.2.3.4 Bus2=Trafo10_home196.1.2.3.4 LineCode=4x4Cu__GPLK_ Length=3.6 Units=m 
New Line.Trafo10_lv_cable197 Phases=4 Bus1=Trafo10_joint462.1.2.3.4 Bus2=Trafo10_home197.1.2.3.4 LineCode=4x4Cu__GPLK_ Length=1.0 Units=m 
New Line.Trafo10_lv_cable198 Phases=4 Bus1=Trafo10_joint462.1.2.3.4 Bus2=Trafo10_home198.1.2.3.4 LineCode=4x4Cu__GPLK_ Length=3.0 Units=m 
New Line.Trafo10_lv_cable199 Phases=4 Bus1=Trafo10_joint463.1.2.3.4 Bus2=Trafo10_home199.1.2.3.4 LineCode=4x4Cu__GPLK_ Length=1.0 Units=m 
New Line.Trafo10_lv_cable200 Phases=4 Bus1=Trafo10_joint463.1.2.3.4 Bus2=Trafo10_home200.1.2.3.4 LineCode=4x4Cu__GPLK_ Length=3.6 Units=m 
...

! Load Definitions 
New Load.Trafo10_home1_Ph1 Bus1=Trafo10_home1.1.4 Phases=1 Conn=wye Model=1 kV=0.23 kW=1 kvar=0.0 
New Load.Trafo10_home1_Ph2 Bus1=Trafo10_home1.2.4 Phases=1 Conn=wye Model=1 kV=0.23 kW=1 kvar=0.0 
New Load.Trafo10_home1_Ph3 Bus1=Trafo10_home1.3.4 Phases=1 Conn=wye Model=1 kV=0.23 kW=1 kvar=0.0 
New Load.Trafo10_home2_Ph1 Bus1=Trafo10_home2.1.4 Phases=1 Conn=wye Model=1 kV=0.23 kW=1 kvar=0.0 
New Load.Trafo10_home2_Ph2 Bus1=Trafo10_home2.2.4 Phases=1 Conn=wye Model=1 kV=0.23 kW=1 kvar=0.0 
New Load.Trafo10_home2_Ph3 Bus1=Trafo10_home2.3.4 Phases=1 Conn=wye Model=1 kV=0.23 kW=1 kvar=0.0 
New Load.Trafo10_home3_Ph1 Bus1=Trafo10_home3.1.4 Phases=1 Conn=wye Model=1 kV=0.23 kW=1 kvar=0.0 
New Load.Trafo10_home3_Ph2 Bus1=Trafo10_home3.2.4 Phases=1 Conn=wye Model=1 kV=0.23 kW=1 kvar=0.0 
New Load.Trafo10_home3_Ph3 Bus1=Trafo10_home3.3.4 Phases=1 Conn=wye Model=1 kV=0.23 kW=1 kvar=0.0 
New Load.Trafo10_home4_Ph1 Bus1=Trafo10_home4.1.4 Phases=1 Conn=wye Model=1 kV=0.23 kW=1 kvar=0.0 
New Load.Trafo10_home4_Ph2 Bus1=Trafo10_home4.2.4 Phases=1 Conn=wye Model=1 kV=0.23 kW=1 kvar=0.0 
New Load.Trafo10_home4_Ph3 Bus1=Trafo10_home4.3.4 Phases=1 Conn=wye Model=1 kV=0.23 kW=1 kvar=0.0 
New Load.Trafo10_home5_Ph1 Bus1=Trafo10_home5.1.4 Phases=1 Conn=wye Model=1 kV=0.23 kW=1 kvar=0.0 
New Load.Trafo10_home5_Ph2 Bus1=Trafo10_home5.2.4 Phases=1 Conn=wye Model=1 kV=0.23 kW=1 kvar=0.0 
New Load.Trafo10_home5_Ph3 Bus1=Trafo10_home5.3.4 Phases=1 Conn=wye Model=1 kV=0.23 kW=1 kvar=0.0 
New Load.Trafo10_home6_Ph1 Bus1=Trafo10_home6.1.4 Phases=1 Conn=wye Model=1 kV=0.23 kW=1 kvar=0.0 
New Load.Trafo10_home6_Ph2 Bus1=Trafo10_home6.2.4 Phases=1 Conn=wye Model=1 kV=0.23 kW=1 kvar=0.0 
New Load.Trafo10_home6_Ph3 Bus1=Trafo10_home6.3.4 Phases=1 Conn=wye Model=1 kV=0.23 kW=1 kvar=0.0 
New Load.Trafo10_home7_Ph1 Bus1=Trafo10_home7.1.4 Phases=1 Conn=wye Model=1 kV=0.23 kW=1 kvar=0.0 
New Load.Trafo10_home7_Ph2 Bus1=Trafo10_home7.2.4 Phases=1 Conn=wye Model=1 kV=0.23 kW=1 kvar=0.0 
New Load.Trafo10_home7_Ph3 Bus1=Trafo10_home7.3.4 Phases=1 Conn=wye Model=1 kV=0.23 kW=1 kvar=0.0 
New Load.Trafo10_home8_Ph1 Bus1=Trafo10_home8.1.4 Phases=1 Conn=wye Model=1 kV=0.23 kW=1 kvar=0.0 
New Load.Trafo10_home8_Ph2 Bus1=Trafo10_home8.2.4 Phases=1 Conn=wye Model=1 kV=0.23 kW=1 kvar=0.0 
New Load.Trafo10_home8_Ph3 Bus1=Trafo10_home8.3.4 Phases=1 Conn=wye Model=1 kV=0.23 kW=1 kvar=0.0 
New Load.Trafo10_home9_Ph1 Bus1=Trafo10_home9.1.4 Phases=1 Conn=wye Model=1 kV=0.23 kW=1 kvar=0.0 
New Load.Trafo10_home9_Ph2 Bus1=Trafo10_home9.2.4 Phases=1 Conn=wye Model=1 kV=0.23 kW=1 kvar=0.0 
New Load.Trafo10_home9_Ph3 Bus1=Trafo10_home9.3.4 Phases=1 Conn=wye Model=1 kV=0.23 kW=1 kvar=0.0 
New Load.Trafo10_home10_Ph1 Bus1=Trafo10_home10.1.4 Phases=1 Conn=wye Model=1 kV=0.23 kW=1 kvar=0.0 
New Load.Trafo10_home10_Ph2 Bus1=Trafo10_home10.2.4 Phases=1 Conn=wye Model=1 kV=0.23 kW=1 kvar=0.0 
New Load.Trafo10_home10_Ph3 Bus1=Trafo10_home10.3.4 Phases=1 Conn=wye Model=1 kV=0.23 kW=1 kvar=0.0 
New Load.Trafo10_home11_Ph1 Bus1=Trafo10_home11.1.4 Phases=1 Conn=wye Model=1 kV=0.23 kW=1 kvar=0.0 
New Load.Trafo10_home11_Ph2 Bus1=Trafo10_home11.2.4 Phases=1 Conn=wye Model=1 kV=0.23 kW=1 kvar=0.0 
New Load.Trafo10_home11_Ph3 Bus1=Trafo10_home11.3.4 Phases=1 Conn=wye Model=1 kV=0.23 kW=1 kvar=0.0 
New Load.Trafo10_home12_Ph1 Bus1=Trafo10_home12.1.4 Phases=1 Conn=wye Model=1 kV=0.23 kW=1 kvar=0.0 
New Load.Trafo10_home12_Ph2 Bus1=Trafo10_home12.2.4 Phases=1 Conn=wye Model=1 kV=0.23 kW=1 kvar=0.0 
New Load.Trafo10_home12_Ph3 Bus1=Trafo10_home12.3.4 Phases=1 Conn=wye Model=1 kV=0.23 kW=1 kvar=0.0 
New Load.Trafo10_home13_Ph1 Bus1=Trafo10_home13.1.4 Phases=1 Conn=wye Model=1 kV=0.23 kW=1 kvar=0.0 
New Load.Trafo10_home13_Ph2 Bus1=Trafo10_home13.2.4 Phases=1 Conn=wye Model=1 kV=0.23 kW=1 kvar=0.0 
New Load.Trafo10_home13_Ph3 Bus1=Trafo10_home13.3.4 Phases=1 Conn=wye Model=1 kV=0.23 kW=1 kvar=0.0 
New Load.Trafo10_home14_Ph1 Bus1=Trafo10_home14.1.4 Phases=1 Conn=wye Model=1 kV=0.23 kW=1 kvar=0.0 
New Load.Trafo10_home14_Ph2 Bus1=Trafo10_home14.2.4 Phases=1 Conn=wye Model=1 kV=0.23 kW=1 kvar=0.0 
New Load.Trafo10_home14_Ph3 Bus1=Trafo10_home14.3.4 Phases=1 Conn=wye Model=1 kV=0.23 kW=1 kvar=0.0 
New Load.Trafo10_home15_Ph1 Bus1=Trafo10_home15.1.4 Phases=1 Conn=wye Model=1 kV=0.23 kW=1 kvar=0.0 
New Load.Trafo10_home15_Ph2 Bus1=Trafo10_home15.2.4 Phases=1 Conn=wye Model=1 kV=0.23 kW=1 kvar=0.0 
New Load.Trafo10_home15_Ph3 Bus1=Trafo10_home15.3.4 Phases=1 Conn=wye Model=1 kV=0.23 kW=1 kvar=0.0 
New Load.Trafo10_home16_Ph1 Bus1=Trafo10_home16.1.4 Phases=1 Conn=wye Model=1 kV=0.23 kW=1 kvar=0.0 
New Load.Trafo10_home16_Ph2 Bus1=Trafo10_home16.2.4 Phases=1 Conn=wye Model=1 kV=0.23 kW=1 kvar=0.0 
New Load.Trafo10_home16_Ph3 Bus1=Trafo10_home16.3.4 Phases=1 Conn=wye Model=1 kV=0.23 kW=1 kvar=0.0 
New Load.Trafo10_home17_Ph1 Bus1=Trafo10_home17.1.4 Phases=1 Conn=wye Model=1 kV=0.23 kW=1 kvar=0.0 
New Load.Trafo10_home17_Ph2 Bus1=Trafo10_home17.2.4 Phases=1 Conn=wye Model=1 kV=0.23 kW=1 kvar=0.0 
New Load.Trafo10_home17_Ph3 Bus1=Trafo10_home17.3.4 Phases=1 Conn=wye Model=1 kV=0.23 kW=1 kvar=0.0 
New Load.Trafo10_home18_Ph1 Bus1=Trafo10_home18.1.4 Phases=1 Conn=wye Model=1 kV=0.23 kW=1 kvar=0.0 
New Load.Trafo10_home18_Ph2 Bus1=Trafo10_home18.2.4 Phases=1 Conn=wye Model=1 kV=0.23 kW=1 kvar=0.0 
New Load.Trafo10_home18_Ph3 Bus1=Trafo10_home18.3.4 Phases=1 Conn=wye Model=1 kV=0.23 kW=1 kvar=0.0 
New Load.Trafo10_home19_Ph1 Bus1=Trafo10_home19.1.4 Phases=1 Conn=wye Model=1 kV=0.23 kW=1 kvar=0.0 
New Load.Trafo10_home19_Ph2 Bus1=Trafo10_home19.2.4 Phases=1 Conn=wye Model=1 kV=0.23 kW=1 kvar=0.0 
New Load.Trafo10_home19_Ph3 Bus1=Trafo10_home19.3.4 Phases=1 Conn=wye Model=1 kV=0.23 kW=1 kvar=0.0 
New Load.Trafo10_home20_Ph1 Bus1=Trafo10_home20.1.4 Phases=1 Conn=wye Model=1 kV=0.23 kW=1 kvar=0.0 
New Load.Trafo10_home20_Ph2 Bus1=Trafo10_home20.2.4 Phases=1 Conn=wye Model=1 kV=0.23 kW=1 kvar=0.0 
New Load.Trafo10_home20_Ph3 Bus1=Trafo10_home20.3.4 Phases=1 Conn=wye Model=1 kV=0.23 kW=1 kvar=0.0 
New Load.Trafo10_home21_Ph1 Bus1=Trafo10_home21.1.4 Phases=1 Conn=wye Model=1 kV=0.23 kW=1 kvar=0.0 
New Load.Trafo10_home21_Ph2 Bus1=Trafo10_home21.2.4 Phases=1 Conn=wye Model=1 kV=0.23 kW=1 kvar=0.0 
New Load.Trafo10_home21_Ph3 Bus1=Trafo10_home21.3.4 Phases=1 Conn=wye Model=1 kV=0.23 kW=1 kvar=0.0 
New Load.Trafo10_home22_Ph1 Bus1=Trafo10_home22.1.4 Phases=1 Conn=wye Model=1 kV=0.23 kW=1 kvar=0.0 
New Load.Trafo10_home22_Ph2 Bus1=Trafo10_home22.2.4 Phases=1 Conn=wye Model=1 kV=0.23 kW=1 kvar=0.0 
New Load.Trafo10_home22_Ph3 Bus1=Trafo10_home22.3.4 Phases=1 Conn=wye Model=1 kV=0.23 kW=1 kvar=0.0 
New Load.Trafo10_home23_Ph1 Bus1=Trafo10_home23.1.4 Phases=1 Conn=wye Model=1 kV=0.23 kW=1 kvar=0.0 
New Load.Trafo10_home23_Ph2 Bus1=Trafo10_home23.2.4 Phases=1 Conn=wye Model=1 kV=0.23 kW=1 kvar=0.0 
New Load.Trafo10_home23_Ph3 Bus1=Trafo10_home23.3.4 Phases=1 Conn=wye Model=1 kV=0.23 kW=1 kvar=0.0 
New Load.Trafo10_home24_Ph1 Bus1=Trafo10_home24.1.4 Phases=1 Conn=wye Model=1 kV=0.23 kW=1 kvar=0.0 
New Load.Trafo10_home24_Ph2 Bus1=Trafo10_home24.2.4 Phases=1 Conn=wye Model=1 kV=0.23 kW=1 kvar=0.0 
New Load.Trafo10_home24_Ph3 Bus1=Trafo10_home24.3.4 Phases=1 Conn=wye Model=1 kV=0.23 kW=1 kvar=0.0 
New Load.Trafo10_home25_Ph1 Bus1=Trafo10_home25.1.4 Phases=1 Conn=wye Model=1 kV=0.23 kW=1 kvar=0.0 
New Load.Trafo10_home25_Ph2 Bus1=Trafo10_home25.2.4 Phases=1 Conn=wye Model=1 kV=0.23 kW=1 kvar=0.0 
New Load.Trafo10_home25_Ph3 Bus1=Trafo10_home25.3.4 Phases=1 Conn=wye Model=1 kV=0.23 kW=1 kvar=0.0 
New Load.Trafo10_home26_Ph1 Bus1=Trafo10_home26.1.4 Phases=1 Conn=wye Model=1 kV=0.23 kW=1 kvar=0.0 
New Load.Trafo10_home26_Ph2 Bus1=Trafo10_home26.2.4 Phases=1 Conn=wye Model=1 kV=0.23 kW=1 kvar=0.0 
New Load.Trafo10_home26_Ph3 Bus1=Trafo10_home26.3.4 Phases=1 Conn=wye Model=1 kV=0.23 kW=1 kvar=0.0 
New Load.Trafo10_home27_Ph1 Bus1=Trafo10_home27.1.4 Phases=1 Conn=wye Model=1 kV=0.23 kW=1 kvar=0.0 
New Load.Trafo10_home27_Ph2 Bus1=Trafo10_home27.2.4 Phases=1 Conn=wye Model=1 kV=0.23 kW=1 kvar=0.0 
New Load.Trafo10_home27_Ph3 Bus1=Trafo10_home27.3.4 Phases=1 Conn=wye Model=1 kV=0.23 kW=1 kvar=0.0 
New Load.Trafo10_home28_Ph1 Bus1=Trafo10_home28.1.4 Phases=1 Conn=wye Model=1 kV=0.23 kW=1 kvar=0.0 
New Load.Trafo10_home28_Ph2 Bus1=Trafo10_home28.2.4 Phases=1 Conn=wye Model=1 kV=0.23 kW=1 kvar=0.0 
New Load.Trafo10_home28_Ph3 Bus1=Trafo10_home28.3.4 Phases=1 Conn=wye Model=1 kV=0.23 kW=1 kvar=0.0 
New Load.Trafo10_home29_Ph1 Bus1=Trafo10_home29.1.4 Phases=1 Conn=wye Model=1 kV=0.23 kW=1 kvar=0.0 
New Load.Trafo10_home29_Ph2 Bus1=Trafo10_home29.2.4 Phases=1 Conn=wye Model=1 kV=0.23 kW=1 kvar=0.0 
New Load.Trafo10_home29_Ph3 Bus1=Trafo10_home29.3.4 Phases=1 Conn=wye Model=1 kV=0.23 kW=1 kvar=0.0 
New Load.Trafo10_home30_Ph1 Bus1=Trafo10_home30.1.4 Phases=1 Conn=wye Model=1 kV=0.23 kW=1 kvar=0.0 
New Load.Trafo10_home30_Ph2 Bus1=Trafo10_home30.2.4 Phases=1 Conn=wye Model=1 kV=0.23 kW=1 kvar=0.0 
New Load.Trafo10_home30_Ph3 Bus1=Trafo10_home30.3.4 Phases=1 Conn=wye Model=1 kV=0.23 kW=1 kvar=0.0 
New Load.Trafo10_home31_Ph1 Bus1=Trafo10_home31.1.4 Phases=1 Conn=wye Model=1 kV=0.23 kW=1 kvar=0.0 
New Load.Trafo10_home31_Ph2 Bus1=Trafo10_home31.2.4 Phases=1 Conn=wye Model=1 kV=0.23 kW=1 kvar=0.0 
New Load.Trafo10_home31_Ph3 Bus1=Trafo10_home31.3.4 Phases=1 Conn=wye Model=1 kV=0.23 kW=1 kvar=0.0 
New Load.Trafo10_home32_Ph1 Bus1=Trafo10_home32.1.4 Phases=1 Conn=wye Model=1 kV=0.23 kW=1 kvar=0.0 
New Load.Trafo10_home32_Ph2 Bus1=Trafo10_home32.2.4 Phases=1 Conn=wye Model=1 kV=0.23 kW=1 kvar=0.0 
New Load.Trafo10_home32_Ph3 Bus1=Trafo10_home32.3.4 Phases=1 Conn=wye Model=1 kV=0.23 kW=1 kvar=0.0 
New Load.Trafo10_home33_Ph1 Bus1=Trafo10_home33.1.4 Phases=1 Conn=wye Model=1 kV=0.23 kW=1 kvar=0.0 
New Load.Trafo10_home33_Ph2 Bus1=Trafo10_home33.2.4 Phases=1 Conn=wye Model=1 kV=0.23 kW=1 kvar=0.0 
New Load.Trafo10_home33_Ph3 Bus1=Trafo10_home33.3.4 Phases=1 Conn=wye Model=1 kV=0.23 kW=1 kvar=0.0 
New Load.Trafo10_home34_Ph1 Bus1=Trafo10_home34.1.4 Phases=1 Conn=wye Model=1 kV=0.23 kW=1 kvar=0.0 
New Load.Trafo10_home34_Ph2 Bus1=Trafo10_home34.2.4 Phases=1 Conn=wye Model=1 kV=0.23 kW=1 kvar=0.0 
New Load.Trafo10_home34_Ph3 Bus1=Trafo10_home34.3.4 Phases=1 Conn=wye Model=1 kV=0.23 kW=1 kvar=0.0 
New Load.Trafo10_home35_Ph1 Bus1=Trafo10_home35.1.4 Phases=1 Conn=wye Model=1 kV=0.23 kW=1 kvar=0.0 
New Load.Trafo10_home35_Ph2 Bus1=Trafo10_home35.2.4 Phases=1 Conn=wye Model=1 kV=0.23 kW=1 kvar=0.0 
New Load.Trafo10_home35_Ph3 Bus1=Trafo10_home35.3.4 Phases=1 Conn=wye Model=1 kV=0.23 kW=1 kvar=0.0 
New Load.Trafo10_home36_Ph1 Bus1=Trafo10_home36.1.4 Phases=1 Conn=wye Model=1 kV=0.23 kW=1 kvar=0.0 
New Load.Trafo10_home36_Ph2 Bus1=Trafo10_home36.2.4 Phases=1 Conn=wye Model=1 kV=0.23 kW=1 kvar=0.0 
New Load.Trafo10_home36_Ph3 Bus1=Trafo10_home36.3.4 Phases=1 Conn=wye Model=1 kV=0.23 kW=1 kvar=0.0 
New Load.Trafo10_home37_Ph1 Bus1=Trafo10_home37.1.4 Phases=1 Conn=wye Model=1 kV=0.23 kW=1 kvar=0.0 
New Load.Trafo10_home37_Ph2 Bus1=Trafo10_home37.2.4 Phases=1 Conn=wye Model=1 kV=0.23 kW=1 kvar=0.0 
New Load.Trafo10_home37_Ph3 Bus1=Trafo10_home37.3.4 Phases=1 Conn=wye Model=1 kV=0.23 kW=1 kvar=0.0 
New Load.Trafo10_home38_Ph1 Bus1=Trafo10_home38.1.4 Phases=1 Conn=wye Model=1 kV=0.23 kW=1 kvar=0.0 
New Load.Trafo10_home38_Ph2 Bus1=Trafo10_home38.2.4 Phases=1 Conn=wye Model=1 kV=0.23 kW=1 kvar=0.0 
New Load.Trafo10_home38_Ph3 Bus1=Trafo10_home38.3.4 Phases=1 Conn=wye Model=1 kV=0.23 kW=1 kvar=0.0 
New Load.Trafo10_home39_Ph1 Bus1=Trafo10_home39.1.4 Phases=1 Conn=wye Model=1 kV=0.23 kW=1 kvar=0.0 
New Load.Trafo10_home39_Ph2 Bus1=Trafo10_home39.2.4 Phases=1 Conn=wye Model=1 kV=0.23 kW=1 kvar=0.0 
New Load.Trafo10_home39_Ph3 Bus1=Trafo10_home39.3.4 Phases=1 Conn=wye Model=1 kV=0.23 kW=1 kvar=0.0 
New Load.Trafo10_home40_Ph1 Bus1=Trafo10_home40.1.4 Phases=1 Conn=wye Model=1 kV=0.23 kW=1 kvar=0.0 
New Load.Trafo10_home40_Ph2 Bus1=Trafo10_home40.2.4 Phases=1 Conn=wye Model=1 kV=0.23 kW=1 kvar=0.0 
New Load.Trafo10_home40_Ph3 Bus1=Trafo10_home40.3.4 Phases=1 Conn=wye Model=1 kV=0.23 kW=1 kvar=0.0 
New Load.Trafo10_home41_Ph1 Bus1=Trafo10_home41.1.4 Phases=1 Conn=wye Model=1 kV=0.23 kW=1 kvar=0.0 
New Load.Trafo10_home41_Ph2 Bus1=Trafo10_home41.2.4 Phases=1 Conn=wye Model=1 kV=0.23 kW=1 kvar=0.0 
New Load.Trafo10_home41_Ph3 Bus1=Trafo10_home41.3.4 Phases=1 Conn=wye Model=1 kV=0.23 kW=1 kvar=0.0 
New Load.Trafo10_home42_Ph1 Bus1=Trafo10_home42.1.4 Phases=1 Conn=wye Model=1 kV=0.23 kW=1 kvar=0.0 
New Load.Trafo10_home42_Ph2 Bus1=Trafo10_home42.2.4 Phases=1 Conn=wye Model=1 kV=0.23 kW=1 kvar=0.0 
New Load.Trafo10_home42_Ph3 Bus1=Trafo10_home42.3.4 Phases=1 Conn=wye Model=1 kV=0.23 kW=1 kvar=0.0 
New Load.Trafo10_home43_Ph1 Bus1=Trafo10_home43.1.4 Phases=1 Conn=wye Model=1 kV=0.23 kW=1 kvar=0.0 
New Load.Trafo10_home43_Ph2 Bus1=Trafo10_home43.2.4 Phases=1 Conn=wye Model=1 kV=0.23 kW=1 kvar=0.0 
New Load.Trafo10_home43_Ph3 Bus1=Trafo10_home43.3.4 Phases=1 Conn=wye Model=1 kV=0.23 kW=1 kvar=0.0 
New Load.Trafo10_home44_Ph1 Bus1=Trafo10_home44.1.4 Phases=1 Conn=wye Model=1 kV=0.23 kW=1 kvar=0.0 
New Load.Trafo10_home44_Ph2 Bus1=Trafo10_home44.2.4 Phases=1 Conn=wye Model=1 kV=0.23 kW=1 kvar=0.0 
New Load.Trafo10_home44_Ph3 Bus1=Trafo10_home44.3.4 Phases=1 Conn=wye Model=1 kV=0.23 kW=1 kvar=0.0 
New Load.Trafo10_home45_Ph1 Bus1=Trafo10_home45.1.4 Phases=1 Conn=wye Model=1 kV=0.23 kW=1 kvar=0.0 
New Load.Trafo10_home45_Ph2 Bus1=Trafo10_home45.2.4 Phases=1 Conn=wye Model=1 kV=0.23 kW=1 kvar=0.0 
New Load.Trafo10_home45_Ph3 Bus1=Trafo10_home45.3.4 Phases=1 Conn=wye Model=1 kV=0.23 kW=1 kvar=0.0 
New Load.Trafo10_home46_Ph1 Bus1=Trafo10_home46.1.4 Phases=1 Conn=wye Model=1 kV=0.23 kW=1 kvar=0.0 
New Load.Trafo10_home46_Ph2 Bus1=Trafo10_home46.2.4 Phases=1 Conn=wye Model=1 kV=0.23 kW=1 kvar=0.0 
New Load.Trafo10_home46_Ph3 Bus1=Trafo10_home46.3.4 Phases=1 Conn=wye Model=1 kV=0.23 kW=1 kvar=0.0 
New Load.Trafo10_home47_Ph1 Bus1=Trafo10_home47.1.4 Phases=1 Conn=wye Model=1 kV=0.23 kW=1 kvar=0.0 
New Load.Trafo10_home47_Ph2 Bus1=Trafo10_home47.2.4 Phases=1 Conn=wye Model=1 kV=0.23 kW=1 kvar=0.0 
New Load.Trafo10_home47_Ph3 Bus1=Trafo10_home47.3.4 Phases=1 Conn=wye Model=1 kV=0.23 kW=1 kvar=0.0 
New Load.Trafo10_home48_Ph1 Bus1=Trafo10_home48.1.4 Phases=1 Conn=wye Model=1 kV=0.23 kW=1 kvar=0.0 
New Load.Trafo10_home48_Ph2 Bus1=Trafo10_home48.2.4 Phases=1 Conn=wye Model=1 kV=0.23 kW=1 kvar=0.0 
New Load.Trafo10_home48_Ph3 Bus1=Trafo10_home48.3.4 Phases=1 Conn=wye Model=1 kV=0.23 kW=1 kvar=0.0 
New Load.Trafo10_home49_Ph1 Bus1=Trafo10_home49.1.4 Phases=1 Conn=wye Model=1 kV=0.23 kW=1 kvar=0.0 
New Load.Trafo10_home49_Ph2 Bus1=Trafo10_home49.2.4 Phases=1 Conn=wye Model=1 kV=0.23 kW=1 kvar=0.0 
New Load.Trafo10_home49_Ph3 Bus1=Trafo10_home49.3.4 Phases=1 Conn=wye Model=1 kV=0.23 kW=1 kvar=0.0 
New Load.Trafo10_home50_Ph1 Bus1=Trafo10_home50.1.4 Phases=1 Conn=wye Model=1 kV=0.23 kW=1 kvar=0.0 
New Load.Trafo10_home50_Ph2 Bus1=Trafo10_home50.2.4 Phases=1 Conn=wye Model=1 kV=0.23 kW=1 kvar=0.0 
New Load.Trafo10_home50_Ph3 Bus1=Trafo10_home50.3.4 Phases=1 Conn=wye Model=1 kV=0.23 kW=1 kvar=0.0 
New Load.Trafo10_home51_Ph1 Bus1=Trafo10_home51.1.4 Phases=1 Conn=wye Model=1 kV=0.23 kW=1 kvar=0.0 
New Load.Trafo10_home51_Ph2 Bus1=Trafo10_home51.2.4 Phases=1 Conn=wye Model=1 kV=0.23 kW=1 kvar=0.0 
New Load.Trafo10_home51_Ph3 Bus1=Trafo10_home51.3.4 Phases=1 Conn=wye Model=1 kV=0.23 kW=1 kvar=0.0 
New Load.Trafo10_home52_Ph1 Bus1=Trafo10_home52.1.4 Phases=1 Conn=wye Model=1 kV=0.23 kW=1 kvar=0.0 
New Load.Trafo10_home52_Ph2 Bus1=Trafo10_home52.2.4 Phases=1 Conn=wye Model=1 kV=0.23 kW=1 kvar=0.0 
New Load.Trafo10_home52_Ph3 Bus1=Trafo10_home52.3.4 Phases=1 Conn=wye Model=1 kV=0.23 kW=1 kvar=0.0 
New Load.Trafo10_home53_Ph1 Bus1=Trafo10_home53.1.4 Phases=1 Conn=wye Model=1 kV=0.23 kW=1 kvar=0.0 
New Load.Trafo10_home53_Ph2 Bus1=Trafo10_home53.2.4 Phases=1 Conn=wye Model=1 kV=0.23 kW=1 kvar=0.0 
New Load.Trafo10_home53_Ph3 Bus1=Trafo10_home53.3.4 Phases=1 Conn=wye Model=1 kV=0.23 kW=1 kvar=0.0 
New Load.Trafo10_home54_Ph1 Bus1=Trafo10_home54.1.4 Phases=1 Conn=wye Model=1 kV=0.23 kW=1 kvar=0.0 
New Load.Trafo10_home54_Ph2 Bus1=Trafo10_home54.2.4 Phases=1 Conn=wye Model=1 kV=0.23 kW=1 kvar=0.0 
New Load.Trafo10_home54_Ph3 Bus1=Trafo10_home54.3.4 Phases=1 Conn=wye Model=1 kV=0.23 kW=1 kvar=0.0 
New Load.Trafo10_home55_Ph1 Bus1=Trafo10_home55.1.4 Phases=1 Conn=wye Model=1 kV=0.23 kW=1 kvar=0.0 
New Load.Trafo10_home55_Ph2 Bus1=Trafo10_home55.2.4 Phases=1 Conn=wye Model=1 kV=0.23 kW=1 kvar=0.0 
New Load.Trafo10_home55_Ph3 Bus1=Trafo10_home55.3.4 Phases=1 Conn=wye Model=1 kV=0.23 kW=1 kvar=0.0 
New Load.Trafo10_home56_Ph1 Bus1=Trafo10_home56.1.4 Phases=1 Conn=wye Model=1 kV=0.23 kW=1 kvar=0.0 
New Load.Trafo10_home56_Ph2 Bus1=Trafo10_home56.2.4 Phases=1 Conn=wye Model=1 kV=0.23 kW=1 kvar=0.0 
New Load.Trafo10_home56_Ph3 Bus1=Trafo10_home56.3.4 Phases=1 Conn=wye Model=1 kV=0.23 kW=1 kvar=0.0 
New Load.Trafo10_home57_Ph1 Bus1=Trafo10_home57.1.4 Phases=1 Conn=wye Model=1 kV=0.23 kW=1 kvar=0.0 
New Load.Trafo10_home57_Ph2 Bus1=Trafo10_home57.2.4 Phases=1 Conn=wye Model=1 kV=0.23 kW=1 kvar=0.0 
New Load.Trafo10_home57_Ph3 Bus1=Trafo10_home57.3.4 Phases=1 Conn=wye Model=1 kV=0.23 kW=1 kvar=0.0 
New Load.Trafo10_home58_Ph1 Bus1=Trafo10_home58.1.4 Phases=1 Conn=wye Model=1 kV=0.23 kW=1 kvar=0.0 
New Load.Trafo10_home58_Ph2 Bus1=Trafo10_home58.2.4 Phases=1 Conn=wye Model=1 kV=0.23 kW=1 kvar=0.0 
New Load.Trafo10_home58_Ph3 Bus1=Trafo10_home58.3.4 Phases=1 Conn=wye Model=1 kV=0.23 kW=1 kvar=0.0 
New Load.Trafo10_home59_Ph1 Bus1=Trafo10_home59.1.4 Phases=1 Conn=wye Model=1 kV=0.23 kW=1 kvar=0.0 
New Load.Trafo10_home59_Ph2 Bus1=Trafo10_home59.2.4 Phases=1 Conn=wye Model=1 kV=0.23 kW=1 kvar=0.0 
New Load.Trafo10_home59_Ph3 Bus1=Trafo10_home59.3.4 Phases=1 Conn=wye Model=1 kV=0.23 kW=1 kvar=0.0 
New Load.Trafo10_home60_Ph1 Bus1=Trafo10_home60.1.4 Phases=1 Conn=wye Model=1 kV=0.23 kW=1 kvar=0.0 
New Load.Trafo10_home60_Ph2 Bus1=Trafo10_home60.2.4 Phases=1 Conn=wye Model=1 kV=0.23 kW=1 kvar=0.0 
New Load.Trafo10_home60_Ph3 Bus1=Trafo10_home60.3.4 Phases=1 Conn=wye Model=1 kV=0.23 kW=1 kvar=0.0 
New Load.Trafo10_home61_Ph1 Bus1=Trafo10_home61.1.4 Phases=1 Conn=wye Model=1 kV=0.23 kW=1 kvar=0.0 
New Load.Trafo10_home61_Ph2 Bus1=Trafo10_home61.2.4 Phases=1 Conn=wye Model=1 kV=0.23 kW=1 kvar=0.0 
New Load.Trafo10_home61_Ph3 Bus1=Trafo10_home61.3.4 Phases=1 Conn=wye Model=1 kV=0.23 kW=1 kvar=0.0 
New Load.Trafo10_home62_Ph1 Bus1=Trafo10_home62.1.4 Phases=1 Conn=wye Model=1 kV=0.23 kW=1 kvar=0.0 
New Load.Trafo10_home62_Ph2 Bus1=Trafo10_home62.2.4 Phases=1 Conn=wye Model=1 kV=0.23 kW=1 kvar=0.0 
New Load.Trafo10_home62_Ph3 Bus1=Trafo10_home62.3.4 Phases=1 Conn=wye Model=1 kV=0.23 kW=1 kvar=0.0 
New Load.Trafo10_home63_Ph1 Bus1=Trafo10_home63.1.4 Phases=1 Conn=wye Model=1 kV=0.23 kW=1 kvar=0.0 
New Load.Trafo10_home63_Ph2 Bus1=Trafo10_home63.2.4 Phases=1 Conn=wye Model=1 kV=0.23 kW=1 kvar=0.0 
New Load.Trafo10_home63_Ph3 Bus1=Trafo10_home63.3.4 Phases=1 Conn=wye Model=1 kV=0.23 kW=1 kvar=0.0 
New Load.Trafo10_home64_Ph1 Bus1=Trafo10_home64.1.4 Phases=1 Conn=wye Model=1 kV=0.23 kW=1 kvar=0.0 
New Load.Trafo10_home64_Ph2 Bus1=Trafo10_home64.2.4 Phases=1 Conn=wye Model=1 kV=0.23 kW=1 kvar=0.0 
New Load.Trafo10_home64_Ph3 Bus1=Trafo10_home64.3.4 Phases=1 Conn=wye Model=1 kV=0.23 kW=1 kvar=0.0 
New Load.Trafo10_home65_Ph1 Bus1=Trafo10_home65.1.4 Phases=1 Conn=wye Model=1 kV=0.23 kW=1 kvar=0.0 
New Load.Trafo10_home65_Ph2 Bus1=Trafo10_home65.2.4 Phases=1 Conn=wye Model=1 kV=0.23 kW=1 kvar=0.0 
New Load.Trafo10_home65_Ph3 Bus1=Trafo10_home65.3.4 Phases=1 Conn=wye Model=1 kV=0.23 kW=1 kvar=0.0 
New Load.Trafo10_home66_Ph1 Bus1=Trafo10_home66.1.4 Phases=1 Conn=wye Model=1 kV=0.23 kW=1 kvar=0.0 
New Load.Trafo10_home66_Ph2 Bus1=Trafo10_home66.2.4 Phases=1 Conn=wye Model=1 kV=0.23 kW=1 kvar=0.0 
New Load.Trafo10_home66_Ph3 Bus1=Trafo10_home66.3.4 Phases=1 Conn=wye Model=1 kV=0.23 kW=1 kvar=0.0 
New Load.Trafo10_home67_Ph1 Bus1=Trafo10_home67.1.4 Phases=1 Conn=wye Model=1 kV=0.23 kW=1 kvar=0.0 
New Load.Trafo10_home67_Ph2 Bus1=Trafo10_home67.2.4 Phases=1 Conn=wye Model=1 kV=0.23 kW=1 kvar=0.0 
...

! Final Configurations 
Set VoltageBases = [150.0, 10.0, 0.4] 
CalcVoltageBases 
SetkVBase Bus=joint5 kVLL=10.0
SetkVBase Bus=joint10 kVLL=10.0
SetkVBase Bus=joint14 kVLL=10.0
SetkVBase Bus=joint22 kVLL=10.0
SetkVBase Bus=joint27 kVLL=10.0
SetkVBase Bus=joint36 kVLL=10.0
SetkVBase Bus=joint38 kVLL=10.0
SetkVBase Bus=joint44 kVLL=10.0
SetkVBase Bus=joint51 kVLL=10.0
SetkVBase Bus=joint57 kVLL=10.0
SetkVBase Bus=joint63 kVLL=10.0
SetkVBase Bus=joint68 kVLL=10.0
SetkVBase Bus=joint73 kVLL=10.0
SetkVBase Bus=joint80 kVLL=10.0
SetkVBase Bus=joint84 kVLL=10.0
SetkVBase Bus=joint91 kVLL=10.0
SetkVBase Bus=jointHighVoltageTrafo_import kVLL=150.0
SetkVBase Bus=lvjoint7 kVLL=0.4
SetkVBase Bus=Trafo10_joint2 kVLL=0.4
SetkVBase Bus=Trafo14_joint2 kVLL=0.4
SetkVBase Bus=lvjoint24 kVLL=0.4
SetkVBase Bus=Trafo27_joint2 kVLL=0.4
SetkVBase Bus=lvjoint38 kVLL=0.4
SetkVBase Bus=lvjoint40 kVLL=0.4
SetkVBase Bus=Trafo44_joint5 kVLL=0.4
SetkVBase Bus=Trafo51_joint1 kVLL=0.4
SetkVBase Bus=lvjoint59 kVLL=0.4
SetkVBase Bus=Trafo63_joint1 kVLL=0.4
SetkVBase Bus=Trafo68_joint1 kVLL=0.4
SetkVBase Bus=Trafo73_joint1 kVLL=0.4
SetkVBase Bus=Trafo80_joint1 kVLL=0.4
SetkVBase Bus=Trafo84_joint2 kVLL=0.4
SetkVBase Bus=Trafo91_joint1 kVLL=0.4
SetkVBase Bus=jointHighVoltageTrafo kVLL=10.0

! Solve
Set mode=snapshot
! Solve
